xflr5 v6.61

 Calculated polar for: NACA 8-H-12 AIRFOIL

 1 1 Reynolds number fixed          Mach number fixed         

 xtrf =   1.000 (top)        1.000 (bottom)
 Mach =   0.000     Re =     0.060 e 6     Ncrit =   9.000

  alpha     CL        CD       CDp       Cm    Top Xtr Bot Xtr   Cpmin    Chinge    XCp    
 ------- -------- --------- --------- -------- ------- ------- -------- --------- ---------
   0.000   0.3416   0.03368   0.02449  -0.0668  0.7089  1.0000  -0.6895   0.0000   0.0000   0.0000   0.4463
   0.500   0.3584   0.03646   0.02710  -0.0648  0.7007  1.0000  -0.6893   0.0000   0.0000   0.0000   0.4310
   1.000   0.3912   0.03854   0.02898  -0.0625  0.6938  1.0000  -0.7092   0.0000   0.0000   0.0000   0.4093
   1.500   0.3814   0.04218   0.03250  -0.0581  0.6903  1.0000  -0.6889   0.0000   0.0000   0.0000   0.4011
   2.000   0.3719   0.04544   0.03561  -0.0523  0.6900  1.0000  -0.6736   0.0000   0.0000   0.0000   0.3888
   2.500   0.3589   0.04882   0.03887  -0.0468  0.6980  1.0000  -0.6554   0.0000   0.0000   0.0000   0.3779
   4.500   0.3549   0.06306   0.05287  -0.0366  0.7788  1.0000  -0.6289   0.0000   0.0000   0.0000   0.3473
   5.000   0.3759   0.06514   0.05494  -0.0342  0.7535  1.0000  -0.6499   0.0000   0.0000   0.0000   0.3345
   5.500   0.4161   0.06892   0.05874  -0.0346  0.7317  1.0000  -0.6903   0.0000   0.0000   0.0000   0.3261
   6.000   0.4641   0.07390   0.06379  -0.0360  0.7117  1.0000  -0.7454   0.0000   0.0000   0.0000   0.3202
   6.500   0.4706   0.07584   0.06577  -0.0327  0.6863  1.0000  -0.7649   0.0000   0.0000   0.0000   0.3114
   7.000   0.5090   0.08017   0.07023  -0.0330  0.6632  1.0000  -0.8212   0.0000   0.0000   0.0000   0.3064
   7.500   0.5385   0.08479   0.07496  -0.0328  0.6414  1.0000  -0.8915   0.0000   0.0000   0.0000   0.3019
   8.500   0.5813   0.09281   0.08328  -0.0309  0.5874  1.0000  -1.1092   0.0000   0.0000   0.0000   0.2930
   9.000   0.6253   0.09834   0.08904  -0.0314  0.5582  1.0000  -1.2952   0.0000   0.0000   0.0000   0.2895
   9.500   0.6458   0.10242   0.09332  -0.0301  0.5242  1.0000  -1.4202   0.0000   0.0000   0.0000   0.2854
  10.000   0.7416   0.09530   0.08656  -0.0217  0.4168  1.0000  -1.8659   0.0000   0.0000   0.0000   0.2672
  10.500   0.7984   0.09370   0.08533  -0.0175  0.3750  1.0000  -2.1846   0.0000   0.0000   0.0000   0.2589
  11.000   0.8858   0.08413   0.07636  -0.0094  0.3276  1.0000  -2.6813   0.0000   0.0000   0.0000   0.2463
  11.500   1.0574   0.05283   0.04409   0.0110  0.1773  1.0000  -3.5916   0.0000   0.0000   0.0000   0.2231
  12.000   1.0764   0.05624   0.04684   0.0152  0.1346  1.0000  -3.7143   0.0000   0.0000   0.0000   0.2186
  12.500   1.1296   0.05860   0.04929   0.0192  0.1114  1.0000  -3.9370   0.0000   0.0000   0.0000   0.2151
  13.000   1.1700   0.06346   0.05448   0.0215  0.1009  1.0000  -4.1366   0.0000   0.0000   0.0000   0.2131
  13.500   1.1828   0.07022   0.06171   0.0224  0.0969  1.0000  -4.2446   0.0000   0.0000   0.0000   0.2117
  14.000   1.1699   0.07872   0.07067   0.0221  0.0954  1.0000  -4.2557   0.0000   0.0000   0.0000   0.2110
  14.500   1.0797   0.09425   0.08686   0.0154  0.0989  1.0000  -3.8865   0.0000   0.0000   0.0000   0.2146
  15.000   0.9710   0.11921   0.11215   0.0016  0.1045  1.0000  -3.3298   0.0000   0.0000   0.0000   0.2269


