xflr5 v6.61

 Calculated polar for: NACA 8-H-12 AIRFOIL

 1 1 Reynolds number fixed          Mach number fixed         

 xtrf =   1.000 (top)        1.000 (bottom)
 Mach =   0.000     Re =     0.040 e 6     Ncrit =   9.000

  alpha     CL        CD       CDp       Cm    Top Xtr Bot Xtr   Cpmin    Chinge    XCp    
 ------- -------- --------- --------- -------- ------- ------- -------- --------- ---------
   0.000   0.1362   0.04148   0.03075  -0.0520  0.8372  1.0000  -0.7373   0.0000   0.0000   0.0000   0.6358
   0.500   0.1471   0.04362   0.03253  -0.0482  0.8435  1.0000  -0.6391   0.0000   0.0000   0.0000   0.5797
   1.000   0.1285   0.04507   0.03375  -0.0407  0.8713  1.0000  -0.5964   0.0000   0.0000   0.0000   0.5680
   2.000   0.0101   0.04240   0.03077  -0.0085  1.0000  1.0000  -0.6441   0.0000   0.0000   0.0000   1.0817
   2.500   0.0405   0.04451   0.03257  -0.0079  1.0000  1.0000  -0.5136   0.0000   0.0000   0.0000   0.4378
   3.000   0.0707   0.04677   0.03459  -0.0075  1.0000  1.0000  -0.4341   0.0000   0.0000   0.0000   0.3481
   3.500   0.1007   0.04919   0.03681  -0.0073  1.0000  1.0000  -0.4510   0.0000   0.0000   0.0000   0.3135
   4.000   0.1304   0.05177   0.03923  -0.0072  1.0000  1.0000  -0.4693   0.0000   0.0000   0.0000   0.2960
   4.500   0.1745   0.05566   0.04301  -0.0103  0.9928  1.0000  -0.4980   0.0000   0.0000   0.0000   0.3004
   5.000   0.2560   0.06228   0.04963  -0.0211  0.9443  1.0000  -0.5526   0.0000   0.0000   0.0000   0.3243
   5.500   0.3217   0.06866   0.05603  -0.0276  0.9057  1.0000  -0.6033   0.0000   0.0000   0.0000   0.3279
   6.000   0.3579   0.07242   0.05985  -0.0288  0.8680  1.0000  -0.6367   0.0000   0.0000   0.0000   0.3218
   6.500   0.3979   0.07717   0.06470  -0.0305  0.8355  1.0000  -0.6812   0.0000   0.0000   0.0000   0.3178
   7.000   0.4324   0.08181   0.06945  -0.0315  0.8044  1.0000  -0.7243   0.0000   0.0000   0.0000   0.3134
   7.500   0.4665   0.08686   0.07466  -0.0325  0.7746  1.0000  -0.7741   0.0000   0.0000   0.0000   0.3099
   8.000   0.5091   0.09327   0.08126  -0.0347  0.7448  1.0000  -0.8581   0.0000   0.0000   0.0000   0.3080
   8.500   0.5383   0.09830   0.08652  -0.0351  0.7125  1.0000  -0.9595   0.0000   0.0000   0.0000   0.3045
   9.000   0.5572   0.10274   0.09114  -0.0345  0.6807  1.0000  -1.0684   0.0000   0.0000   0.0000   0.3008
   9.500   0.5772   0.10793   0.09654  -0.0344  0.6490  1.0000  -1.1773   0.0000   0.0000   0.0000   0.2979
  10.000   0.5987   0.11369   0.10256  -0.0346  0.6166  1.0000  -1.2861   0.0000   0.0000   0.0000   0.2957
  10.500   0.6203   0.11981   0.10892  -0.0349  0.5823  1.0000  -1.3901   0.0000   0.0000   0.0000   0.2937
  11.000   0.6462   0.12665   0.11604  -0.0355  0.5453  1.0000  -1.4982   0.0000   0.0000   0.0000   0.2919
  11.500   0.6684   0.13393   0.12360  -0.0359  0.5077  1.0000  -1.5845   0.0000   0.0000   0.0000   0.2902
  12.000   0.7177   0.13393   0.12394  -0.0300  0.3901  1.0000  -1.8199   0.0000   0.0000   0.0000   0.2777
  12.500   0.6945   0.14601   0.13611  -0.0354  0.4201  1.0000  -1.6826   0.0000   0.0000   0.0000   0.2865
  13.000   0.8015   0.13499   0.12566  -0.0208  0.2511  1.0000  -2.1905   0.0000   0.0000   0.0000   0.2599
  13.500   0.8120   0.14147   0.13225  -0.0207  0.2226  1.0000  -2.1920   0.0000   0.0000   0.0000   0.2587
  14.000   0.8121   0.15121   0.14205  -0.0230  0.2086  1.0000  -2.1264   0.0000   0.0000   0.0000   0.2611
  14.500   0.8030   0.16375   0.15457  -0.0280  0.2089  1.0000  -1.9943   0.0000   0.0000   0.0000   0.2673


