xflr5 v6.61

 Calculated polar for: NACA 8-H-12 AIRFOIL

 1 1 Reynolds number fixed          Mach number fixed         

 xtrf =   1.000 (top)        1.000 (bottom)
 Mach =   0.000     Re =     0.500 e 6     Ncrit =   9.000

  alpha     CL        CD       CDp       Cm    Top Xtr Bot Xtr   Cpmin    Chinge    XCp    
 ------- -------- --------- --------- -------- ------- ------- -------- --------- ---------
   0.500   0.3003   0.00813   0.00293  -0.0149  0.5066  0.9938  -0.8339   0.0000   0.0000   0.0000   0.2977
   1.000   0.3802   0.00806   0.00276  -0.0201  0.4986  1.0000  -0.8885   0.0000   0.0000   0.0000   0.3004
   1.500   0.4307   0.00818   0.00275  -0.0192  0.4916  1.0000  -0.9273   0.0000   0.0000   0.0000   0.2916
   2.000   0.4821   0.00823   0.00278  -0.0185  0.4851  1.0000  -0.9681   0.0000   0.0000   0.0000   0.2848
   2.500   0.5336   0.00835   0.00284  -0.0178  0.4792  1.0000  -1.0092   0.0000   0.0000   0.0000   0.2792
   3.000   0.5855   0.00853   0.00299  -0.0171  0.4734  1.0000  -1.0508   0.0000   0.0000   0.0000   0.2747
   3.500   0.6378   0.00866   0.00314  -0.0166  0.4676  1.0000  -1.0946   0.0000   0.0000   0.0000   0.2709
   4.000   0.6898   0.00887   0.00333  -0.0160  0.4622  1.0000  -1.1390   0.0000   0.0000   0.0000   0.2676
   4.500   0.7419   0.00912   0.00362  -0.0155  0.4569  1.0000  -1.1852   0.0000   0.0000   0.0000   0.2648
   5.000   0.7942   0.00928   0.00384  -0.0149  0.4497  1.0000  -1.3691   0.0000   0.0000   0.0000   0.2622
   5.500   0.8460   0.00951   0.00410  -0.0144  0.4412  1.0000  -1.6183   0.0000   0.0000   0.0000   0.2598
   6.000   0.8977   0.00963   0.00421  -0.0138  0.4272  1.0000  -1.8798   0.0000   0.0000   0.0000   0.2576
   6.500   0.9497   0.00968   0.00436  -0.0133  0.4094  1.0000  -2.1711   0.0000   0.0000   0.0000   0.2556
   7.000   1.0016   0.00983   0.00460  -0.0129  0.3894  1.0000  -2.4808   0.0000   0.0000   0.0000   0.2538
   7.500   1.0529   0.01012   0.00496  -0.0125  0.3681  1.0000  -2.7999   0.0000   0.0000   0.0000   0.2521
   8.000   1.1025   0.01066   0.00546  -0.0120  0.3247  1.0000  -3.1234   0.0000   0.0000   0.0000   0.2504
   8.500   1.1351   0.01341   0.00745  -0.0110  0.1823  1.0000  -3.3923   0.0000   0.0000   0.0000   0.2485
   9.000   1.1556   0.01660   0.01003  -0.0087  0.0820  1.0000  -3.6161   0.0000   0.0000   0.0000   0.2456
   9.500   1.1683   0.01952   0.01276  -0.0056  0.0438  1.0000  -3.7989   0.0000   0.0000   0.0000   0.2421
  10.000   1.1633   0.02263   0.01592  -0.0008  0.0356  1.0000  -3.9162   0.0000   0.0000   0.0000   0.2370
  10.500   1.1665   0.02617   0.01954   0.0018  0.0315  1.0000  -4.0838   0.0000   0.0000   0.0000   0.2339
  11.000   1.1684   0.03036   0.02386   0.0035  0.0292  1.0000  -4.2389   0.0000   0.0000   0.0000   0.2315
  11.500   1.1749   0.03439   0.02804   0.0046  0.0276  1.0000  -4.4190   0.0000   0.0000   0.0000   0.2297
  12.000   1.1789   0.03881   0.03259   0.0054  0.0264  1.0000  -4.5892   0.0000   0.0000   0.0000   0.2280
  12.500   1.1800   0.04362   0.03750   0.0060  0.0254  1.0000  -4.7450   0.0000   0.0000   0.0000   0.2265
  13.000   1.1762   0.04903   0.04302   0.0066  0.0243  1.0000  -4.8795   0.0000   0.0000   0.0000   0.2251
  13.500   1.1815   0.05367   0.04780   0.0070  0.0236  1.0000  -5.0688   0.0000   0.0000   0.0000   0.2238
  14.000   1.1915   0.05793   0.05220   0.0072  0.0230  1.0000  -5.2863   0.0000   0.0000   0.0000   0.2226
  14.500   1.2022   0.06214   0.05654   0.0075  0.0224  1.0000  -5.5290   0.0000   0.0000   0.0000   0.2214
  15.000   1.2132   0.06634   0.06088   0.0078  0.0218  1.0000  -5.7792   0.0000   0.0000   0.0000   0.2202


