xflr5 v6.61

 Calculated polar for: NACA 8-H-12 AIRFOIL

 1 1 Reynolds number fixed          Mach number fixed         

 xtrf =   1.000 (top)        1.000 (bottom)
 Mach =   0.000     Re =     0.200 e 6     Ncrit =   9.000

  alpha     CL        CD       CDp       Cm    Top Xtr Bot Xtr   Cpmin    Chinge    XCp    
 ------- -------- --------- --------- -------- ------- ------- -------- --------- ---------
   0.000   0.2817   0.01217   0.00550  -0.0236  0.5746  1.0000  -0.7905   0.0000   0.0000   0.0000   0.3332
   0.500   0.3324   0.01231   0.00555  -0.0230  0.5652  1.0000  -0.8255   0.0000   0.0000   0.0000   0.3177
   1.000   0.3822   0.01253   0.00556  -0.0219  0.5586  1.0000  -0.8637   0.0000   0.0000   0.0000   0.3053
   1.500   0.4337   0.01283   0.00586  -0.0216  0.5500  1.0000  -0.9007   0.0000   0.0000   0.0000   0.2970
   2.000   0.4840   0.01309   0.00596  -0.0206  0.5435  1.0000  -0.9397   0.0000   0.0000   0.0000   0.2893
   2.500   0.5356   0.01356   0.00649  -0.0203  0.5363  1.0000  -0.9788   0.0000   0.0000   0.0000   0.2841
   3.000   0.5867   0.01393   0.00685  -0.0196  0.5296  1.0000  -1.0193   0.0000   0.0000   0.0000   0.2792
   3.500   0.6375   0.01444   0.00733  -0.0189  0.5239  1.0000  -1.0622   0.0000   0.0000   0.0000   0.2750
   4.000   0.6888   0.01503   0.00806  -0.0186  0.5166  1.0000  -1.1053   0.0000   0.0000   0.0000   0.2719
   4.500   0.7396   0.01548   0.00851  -0.0178  0.5110  1.0000  -1.1630   0.0000   0.0000   0.0000   0.2684
   5.000   0.7900   0.01624   0.00945  -0.0175  0.5039  1.0000  -1.3201   0.0000   0.0000   0.0000   0.2660
   5.500   0.8406   0.01666   0.00995  -0.0168  0.4963  1.0000  -1.5611   0.0000   0.0000   0.0000   0.2632
   6.000   0.8904   0.01718   0.01062  -0.0161  0.4872  1.0000  -1.8111   0.0000   0.0000   0.0000   0.2606
   6.500   0.9415   0.01714   0.01057  -0.0148  0.4771  1.0000  -2.0805   0.0000   0.0000   0.0000   0.2577
   7.500   1.0409   0.01637   0.01002  -0.0122  0.4388  1.0000  -2.6932   0.0000   0.0000   0.0000   0.2522
   8.000   1.0900   0.01596   0.00969  -0.0108  0.4137  1.0000  -3.0139   0.0000   0.0000   0.0000   0.2497
   8.500   1.1370   0.01596   0.00992  -0.0097  0.3822  1.0000  -3.3321   0.0000   0.0000   0.0000   0.2475
   9.000   1.1779   0.01656   0.01052  -0.0084  0.3073  1.0000  -3.6284   0.0000   0.0000   0.0000   0.2452
   9.500   1.1661   0.02139   0.01433  -0.0039  0.1516  1.0000  -3.7310   0.0000   0.0000   0.0000   0.2405
  10.000   1.1304   0.02677   0.01934   0.0021  0.0976  1.0000  -3.7369   0.0000   0.0000   0.0000   0.2344
  10.500   1.1078   0.03269   0.02511   0.0049  0.0720  1.0000  -3.7594   0.0000   0.0000   0.0000   0.2309
  11.000   1.0962   0.03826   0.03070   0.0065  0.0608  1.0000  -3.8306   0.0000   0.0000   0.0000   0.2284
  11.500   1.0889   0.04357   0.03603   0.0079  0.0544  1.0000  -3.9147   0.0000   0.0000   0.0000   0.2262
  12.500   1.1040   0.05128   0.04378   0.0114  0.0455  1.0000  -4.2083   0.0000   0.0000   0.0000   0.2213
  13.000   1.1249   0.05405   0.04670   0.0133  0.0431  1.0000  -4.4223   0.0000   0.0000   0.0000   0.2190
  13.500   1.1494   0.05657   0.04935   0.0154  0.0409  1.0000  -4.6675   0.0000   0.0000   0.0000   0.2165
  14.000   1.1761   0.05913   0.05199   0.0175  0.0390  1.0000  -4.9521   0.0000   0.0000   0.0000   0.2142
  14.500   1.2090   0.06225   0.05528   0.0203  0.0370  1.0000  -5.2529   0.0000   0.0000   0.0000   0.2114
  15.000   1.2160   0.06750   0.06093   0.0207  0.0364  1.0000  -5.4385   0.0000   0.0000   0.0000   0.2103


