xflr5 v6.61

 Calculated polar for: NACA 8-H-12 AIRFOIL

 1 1 Reynolds number fixed          Mach number fixed         

 xtrf =   1.000 (top)        1.000 (bottom)
 Mach =   0.000     Re =     1.000 e 6     Ncrit =   9.000

  alpha     CL        CD       CDp       Cm    Top Xtr Bot Xtr   Cpmin    Chinge    XCp    
 ------- -------- --------- --------- -------- ------- ------- -------- --------- ---------
   0.000   0.1225   0.00663   0.00135   0.0097  0.4832  0.5826  -0.7319   0.0000   0.0000   0.0000   0.1696
   0.500   0.1973   0.00568   0.00153   0.0060  0.4751  0.9527  -0.7840   0.0000   0.0000   0.0000   0.2170
   1.000   0.2804   0.00600   0.00177   0.0006  0.4678  0.9760  -0.8407   0.0000   0.0000   0.0000   0.2447
   1.500   0.3815   0.00640   0.00204  -0.0088  0.4594  0.9899  -0.9080   0.0000   0.0000   0.0000   0.2696
   2.000   0.4696   0.00647   0.00206  -0.0156  0.4538  0.9970  -0.9696   0.0000   0.0000   0.0000   0.2795
   2.500   0.5394   0.00650   0.00203  -0.0187  0.4475  1.0000  -1.0224   0.0000   0.0000   0.0000   0.2805
   3.000   0.5909   0.00660   0.00210  -0.0180  0.4419  1.0000  -1.0643   0.0000   0.0000   0.0000   0.2758
   3.500   0.6430   0.00666   0.00218  -0.0174  0.4372  1.0000  -1.1078   0.0000   0.0000   0.0000   0.2719
   4.000   0.6952   0.00677   0.00228  -0.0168  0.4318  1.0000  -1.1528   0.0000   0.0000   0.0000   0.2685
   4.500   0.7476   0.00691   0.00242  -0.0163  0.4246  1.0000  -1.1993   0.0000   0.0000   0.0000   0.2656
   5.000   0.8003   0.00700   0.00252  -0.0158  0.4156  1.0000  -1.3953   0.0000   0.0000   0.0000   0.2630
   5.500   0.8530   0.00711   0.00265  -0.0154  0.4013  1.0000  -1.6489   0.0000   0.0000   0.0000   0.2608
   6.000   0.9055   0.00729   0.00281  -0.0150  0.3842  1.0000  -1.9169   0.0000   0.0000   0.0000   0.2587
   6.500   0.9578   0.00752   0.00304  -0.0146  0.3668  1.0000  -2.2181   0.0000   0.0000   0.0000   0.2568
   7.000   1.0097   0.00784   0.00334  -0.0143  0.3430  1.0000  -2.5309   0.0000   0.0000   0.0000   0.2550
   7.500   1.0571   0.00900   0.00411  -0.0139  0.2563  1.0000  -2.8401   0.0000   0.0000   0.0000   0.2534
   8.000   1.0958   0.01138   0.00580  -0.0132  0.1325  1.0000  -3.1255   0.0000   0.0000   0.0000   0.2516
   8.500   1.1332   0.01328   0.00732  -0.0121  0.0656  1.0000  -3.4130   0.0000   0.0000   0.0000   0.2495
   9.000   1.1686   0.01492   0.00879  -0.0104  0.0344  1.0000  -3.6938   0.0000   0.0000   0.0000   0.2470
   9.500   1.1999   0.01655   0.01038  -0.0083  0.0239  1.0000  -3.9508   0.0000   0.0000   0.0000   0.2442
  10.000   1.2295   0.01802   0.01195  -0.0062  0.0218  1.0000  -4.2323   0.0000   0.0000   0.0000   0.2415
  10.500   1.2339   0.02039   0.01441  -0.0017  0.0204  1.0000  -4.4348   0.0000   0.0000   0.0000   0.2370
  11.000   1.2371   0.02372   0.01787   0.0013  0.0191  1.0000  -4.6170   0.0000   0.0000   0.0000   0.2337
  11.500   1.2496   0.02691   0.02119   0.0027  0.0186  1.0000  -4.8486   0.0000   0.0000   0.0000   0.2316
  12.000   1.2625   0.03030   0.02470   0.0037  0.0180  1.0000  -5.0873   0.0000   0.0000   0.0000   0.2299
  12.500   1.2710   0.03424   0.02877   0.0045  0.0175  1.0000  -5.3045   0.0000   0.0000   0.0000   0.2283
  13.000   1.2769   0.03856   0.03321   0.0050  0.0170  1.0000  -5.5315   0.0000   0.0000   0.0000   0.2269
  13.500   1.2806   0.04323   0.03801   0.0053  0.0166  1.0000  -5.7482   0.0000   0.0000   0.0000   0.2256
  14.000   1.2834   0.04824   0.04314   0.0052  0.0162  1.0000  -5.9638   0.0000   0.0000   0.0000   0.2246
  14.500   1.2832   0.05381   0.04883   0.0049  0.0158  1.0000  -6.1740   0.0000   0.0000   0.0000   0.2239
  15.000   1.2785   0.05998   0.05513   0.0044  0.0153  1.0000  -6.3494   0.0000   0.0000   0.0000   0.2232


