xflr5 v6.61

 Calculated polar for: NACA 8-H-12 AIRFOIL

 1 1 Reynolds number fixed          Mach number fixed         

 xtrf =   1.000 (top)        1.000 (bottom)
 Mach =   0.000     Re =     0.030 e 6     Ncrit =   9.000

  alpha     CL        CD       CDp       Cm    Top Xtr Bot Xtr   Cpmin    Chinge    XCp    
 ------- -------- --------- --------- -------- ------- ------- -------- --------- ---------
   0.000  -0.0589   0.03894   0.02724  -0.0213  0.9786  1.0000  -1.1176   0.0000   0.0000   0.0000  -0.1233
   0.500  -0.0745   0.03882   0.02670  -0.0112  1.0000  1.0000  -1.0554   0.0000   0.0000   0.0000   0.0919
   1.000  -0.0449   0.04047   0.02781  -0.0101  1.0000  1.0000  -0.9044   0.0000   0.0000   0.0000   0.0187
   1.500  -0.0151   0.04227   0.02912  -0.0091  1.0000  1.0000  -0.7553   0.0000   0.0000   0.0000  -0.3606
   2.000   0.0149   0.04421   0.03067  -0.0084  1.0000  1.0000  -0.6234   0.0000   0.0000   0.0000   0.8028
   2.500   0.0449   0.04629   0.03241  -0.0078  1.0000  1.0000  -0.4949   0.0000   0.0000   0.0000   0.4145
   3.000   0.0748   0.04852   0.03436  -0.0073  1.0000  1.0000  -0.4418   0.0000   0.0000   0.0000   0.3394
   3.500   0.1045   0.05091   0.03652  -0.0070  1.0000  1.0000  -0.4583   0.0000   0.0000   0.0000   0.3086
   4.000   0.1339   0.05346   0.03890  -0.0069  1.0000  1.0000  -0.4767   0.0000   0.0000   0.0000   0.2925
   4.500   0.1629   0.05618   0.04150  -0.0069  1.0000  1.0000  -0.4957   0.0000   0.0000   0.0000   0.2830
   5.000   0.1913   0.05910   0.04433  -0.0070  1.0000  1.0000  -0.5153   0.0000   0.0000   0.0000   0.2772
   5.500   0.2192   0.06221   0.04740  -0.0073  1.0000  1.0000  -0.5358   0.0000   0.0000   0.0000   0.2735
   6.000   0.2463   0.06553   0.05073  -0.0078  1.0000  1.0000  -0.5578   0.0000   0.0000   0.0000   0.2712
   6.500   0.2727   0.06908   0.05432  -0.0084  1.0000  1.0000  -0.5824   0.0000   0.0000   0.0000   0.2700
   7.000   0.3233   0.07531   0.06069  -0.0146  0.9837  1.0000  -0.6297   0.0000   0.0000   0.0000   0.2843
   7.500   0.3920   0.08348   0.06910  -0.0243  0.9269  1.0000  -0.6963   0.0000   0.0000   0.0000   0.3014
   8.000   0.4406   0.09043   0.07632  -0.0293  0.8804  1.0000  -0.7626   0.0000   0.0000   0.0000   0.3055
   8.500   0.4764   0.09664   0.08275  -0.0318  0.8402  1.0000  -0.8333   0.0000   0.0000   0.0000   0.3054
   9.000   0.5123   0.10322   0.08963  -0.0342  0.8004  1.0000  -0.9430   0.0000   0.0000   0.0000   0.3050
   9.500   0.5520   0.11131   0.09801  -0.0372  0.7629  1.0000  -1.0883   0.0000   0.0000   0.0000   0.3053
  10.000   0.5692   0.11642   0.10337  -0.0371  0.7260  1.0000  -1.1834   0.0000   0.0000   0.0000   0.3027
  10.500   0.5884   0.12224   0.10949  -0.0375  0.6872  1.0000  -1.2779   0.0000   0.0000   0.0000   0.3008
  11.000   0.6133   0.12940   0.11695  -0.0387  0.6478  1.0000  -1.3785   0.0000   0.0000   0.0000   0.2998
  11.500   0.6433   0.13844   0.12632  -0.0406  0.6087  1.0000  -1.4801   0.0000   0.0000   0.0000   0.2993
  12.000   0.6501   0.14380   0.13193  -0.0404  0.5711  1.0000  -1.5133   0.0000   0.0000   0.0000   0.2979
  12.500   0.6823   0.15388   0.14234  -0.0419  0.5256  1.0000  -1.5981   0.0000   0.0000   0.0000   0.2970
  13.000   0.6883   0.15994   0.14857  -0.0423  0.4909  1.0000  -1.6028   0.0000   0.0000   0.0000   0.2965
  13.500   0.7009   0.16736   0.15616  -0.0433  0.4577  1.0000  -1.6054   0.0000   0.0000   0.0000   0.2964
  14.000   0.7216   0.17652   0.16552  -0.0447  0.4268  1.0000  -1.6095   0.0000   0.0000   0.0000   0.2960
  14.500   0.7251   0.18239   0.17146  -0.0464  0.4083  1.0000  -1.5663   0.0000   0.0000   0.0000   0.2975
  15.000   0.7358   0.18943   0.17858  -0.0484  0.3907  1.0000  -1.5324   0.0000   0.0000   0.0000   0.2987


