xflr5 v6.61

 Calculated polar for: NACA 8-H-12 AIRFOIL

 1 1 Reynolds number fixed          Mach number fixed         

 xtrf =   1.000 (top)        1.000 (bottom)
 Mach =   0.000     Re =     0.130 e 6     Ncrit =   9.000

  alpha     CL        CD       CDp       Cm    Top Xtr Bot Xtr   Cpmin    Chinge    XCp    
 ------- -------- --------- --------- -------- ------- ------- -------- --------- ---------
   0.000   0.2956   0.01619   0.00883  -0.0295  0.6106  1.0000  -0.7720   0.0000   0.0000   0.0000   0.3497
   0.500   0.3465   0.01680   0.00934  -0.0295  0.6004  1.0000  -0.8056   0.0000   0.0000   0.0000   0.3343
   1.000   0.3946   0.01716   0.00950  -0.0282  0.5937  1.0000  -0.8412   0.0000   0.0000   0.0000   0.3199
   1.500   0.4456   0.01803   0.01038  -0.0285  0.5841  1.0000  -0.8746   0.0000   0.0000   0.0000   0.3117
   2.000   0.4940   0.01851   0.01074  -0.0273  0.5775  1.0000  -0.9125   0.0000   0.0000   0.0000   0.3024
   2.500   0.5441   0.01976   0.01207  -0.0278  0.5691  1.0000  -0.9461   0.0000   0.0000   0.0000   0.2977
   3.000   0.5926   0.02041   0.01270  -0.0268  0.5621  1.0000  -0.9856   0.0000   0.0000   0.0000   0.2913
   3.500   0.6405   0.02183   0.01422  -0.0268  0.5548  1.0000  -1.0229   0.0000   0.0000   0.0000   0.2876
   4.000   0.6877   0.02303   0.01552  -0.0264  0.5468  1.0000  -1.0703   0.0000   0.0000   0.0000   0.2836
   4.500   0.7349   0.02384   0.01635  -0.0251  0.5412  1.0000  -1.1279   0.0000   0.0000   0.0000   0.2788
   5.000   0.7771   0.02607   0.01885  -0.0256  0.5304  1.0000  -1.2356   0.0000   0.0000   0.0000   0.2770
   6.000   0.8659   0.02807   0.02112  -0.0229  0.5124  1.0000  -1.6844   0.0000   0.0000   0.0000   0.2694
   6.500   0.9023   0.03009   0.02338  -0.0220  0.4996  1.0000  -1.8961   0.0000   0.0000   0.0000   0.2666
   7.000   0.9662   0.02748   0.02072  -0.0186  0.4930  1.0000  -2.2264   0.0000   0.0000   0.0000   0.2608
   7.500   1.0184   0.02586   0.01920  -0.0159  0.4748  1.0000  -2.5460   0.0000   0.0000   0.0000   0.2564
   8.000   1.0689   0.02423   0.01771  -0.0132  0.4519  1.0000  -2.8719   0.0000   0.0000   0.0000   0.2524
   8.500   1.1234   0.02191   0.01539  -0.0105  0.4246  1.0000  -3.2255   0.0000   0.0000   0.0000   0.2485
   9.000   1.1666   0.02111   0.01485  -0.0082  0.3863  1.0000  -3.5347   0.0000   0.0000   0.0000   0.2453
   9.500   1.1914   0.02172   0.01536  -0.0050  0.2807  1.0000  -3.7665   0.0000   0.0000   0.0000   0.2415
  10.000   1.1467   0.02743   0.02019   0.0018  0.1738  1.0000  -3.7486   0.0000   0.0000   0.0000   0.2347
  10.500   1.1027   0.03470   0.02702   0.0054  0.1241  1.0000  -3.7057   0.0000   0.0000   0.0000   0.2304
  11.000   1.0755   0.04158   0.03361   0.0073  0.0957  1.0000  -3.7040   0.0000   0.0000   0.0000   0.2275
  11.500   1.0669   0.04680   0.03862   0.0094  0.0794  1.0000  -3.7700   0.0000   0.0000   0.0000   0.2246
  12.000   1.0777   0.05024   0.04200   0.0118  0.0691  1.0000  -3.9088   0.0000   0.0000   0.0000   0.2216
  12.500   1.1054   0.05238   0.04420   0.0149  0.0622  1.0000  -4.0975   0.0000   0.0000   0.0000   0.2183
  13.000   1.1489   0.05395   0.04564   0.0185  0.0559  1.0000  -4.4047   0.0000   0.0000   0.0000   0.2149
  13.500   1.1803   0.05721   0.04928   0.0206  0.0535  1.0000  -4.6405   0.0000   0.0000   0.0000   0.2128
  14.000   1.2030   0.06175   0.05422   0.0221  0.0518  1.0000  -4.8515   0.0000   0.0000   0.0000   0.2110
  14.500   1.2096   0.06767   0.06056   0.0227  0.0505  1.0000  -4.9920   0.0000   0.0000   0.0000   0.2097
  15.000   1.2055   0.07440   0.06766   0.0224  0.0493  1.0000  -5.1082   0.0000   0.0000   0.0000   0.2090


