xflr5 v6.61

 Calculated polar for: NACA 8-H-12 AIRFOIL

 1 1 Reynolds number fixed          Mach number fixed         

 xtrf =   1.000 (top)        1.000 (bottom)
 Mach =   0.000     Re =     0.300 e 6     Ncrit =   9.000

  alpha     CL        CD       CDp       Cm    Top Xtr Bot Xtr   Cpmin    Chinge    XCp    
 ------- -------- --------- --------- -------- ------- ------- -------- --------- ---------
   0.000   0.2784   0.00988   0.00393  -0.0220  0.5446  1.0000  -0.8023   0.0000   0.0000   0.0000   0.3281
   0.500   0.3285   0.00996   0.00389  -0.0212  0.5366  1.0000  -0.8387   0.0000   0.0000   0.0000   0.3127
   1.000   0.3790   0.01004   0.00384  -0.0203  0.5291  1.0000  -0.8760   0.0000   0.0000   0.0000   0.3011
   1.500   0.4301   0.01021   0.00392  -0.0195  0.5221  1.0000  -0.9153   0.0000   0.0000   0.0000   0.2925
   2.000   0.4815   0.01035   0.00400  -0.0188  0.5147  1.0000  -0.9552   0.0000   0.0000   0.0000   0.2857
   2.500   0.5327   0.01064   0.00417  -0.0181  0.5090  1.0000  -0.9953   0.0000   0.0000   0.0000   0.2800
   3.000   0.5847   0.01086   0.00447  -0.0176  0.5023  1.0000  -1.0369   0.0000   0.0000   0.0000   0.2757
   3.500   0.6364   0.01112   0.00469  -0.0169  0.4962  1.0000  -1.0797   0.0000   0.0000   0.0000   0.2717
   4.000   0.6881   0.01151   0.00510  -0.0164  0.4909  1.0000  -1.1243   0.0000   0.0000   0.0000   0.2684
   4.500   0.7400   0.01184   0.00554  -0.0159  0.4844  1.0000  -1.1754   0.0000   0.0000   0.0000   0.2656
   5.000   0.7917   0.01217   0.00588  -0.0153  0.4786  1.0000  -1.3475   0.0000   0.0000   0.0000   0.2629
   5.500   0.8431   0.01251   0.00636  -0.0148  0.4703  1.0000  -1.5928   0.0000   0.0000   0.0000   0.2605
   6.000   0.8945   0.01270   0.00655  -0.0140  0.4614  1.0000  -1.8511   0.0000   0.0000   0.0000   0.2580
   6.500   0.9454   0.01264   0.00657  -0.0132  0.4458  1.0000  -2.1300   0.0000   0.0000   0.0000   0.2556
   7.000   0.9960   0.01261   0.00657  -0.0123  0.4278  1.0000  -2.4344   0.0000   0.0000   0.0000   0.2534
   7.500   1.0462   0.01261   0.00678  -0.0117  0.4048  1.0000  -2.7485   0.0000   0.0000   0.0000   0.2515
   8.000   1.0957   0.01283   0.00708  -0.0110  0.3794  1.0000  -3.0695   0.0000   0.0000   0.0000   0.2496
   8.500   1.1432   0.01333   0.00766  -0.0103  0.3317  1.0000  -3.3893   0.0000   0.0000   0.0000   0.2478
   9.000   1.1629   0.01665   0.01015  -0.0083  0.1800  1.0000  -3.6116   0.0000   0.0000   0.0000   0.2451
   9.500   1.1556   0.02119   0.01413  -0.0043  0.0851  1.0000  -3.7247   0.0000   0.0000   0.0000   0.2409
  10.000   1.1335   0.02564   0.01844   0.0011  0.0596  1.0000  -3.7751   0.0000   0.0000   0.0000   0.2353
  10.500   1.1248   0.03047   0.02329   0.0035  0.0482  1.0000  -3.8629   0.0000   0.0000   0.0000   0.2322
  11.000   1.1228   0.03518   0.02812   0.0050  0.0425  1.0000  -3.9863   0.0000   0.0000   0.0000   0.2299
  11.500   1.1211   0.04004   0.03306   0.0061  0.0391  1.0000  -4.1160   0.0000   0.0000   0.0000   0.2280
  12.000   1.1173   0.04512   0.03823   0.0073  0.0368  1.0000  -4.2226   0.0000   0.0000   0.0000   0.2260
  12.500   1.1261   0.04912   0.04238   0.0082  0.0350  1.0000  -4.3866   0.0000   0.0000   0.0000   0.2243
  13.000   1.1371   0.05296   0.04632   0.0092  0.0334  1.0000  -4.5775   0.0000   0.0000   0.0000   0.2226
  13.500   1.1503   0.05657   0.05001   0.0102  0.0320  1.0000  -4.7972   0.0000   0.0000   0.0000   0.2208
  14.000   1.1685   0.05924   0.05268   0.0127  0.0302  1.0000  -5.0419   0.0000   0.0000   0.0000   0.2180
  14.500   1.1875   0.06239   0.05603   0.0142  0.0294  1.0000  -5.3069   0.0000   0.0000   0.0000   0.2160
  15.000   1.2042   0.06607   0.05995   0.0152  0.0286  1.0000  -5.5590   0.0000   0.0000   0.0000   0.2143


