xflr5 v6.61

 Calculated polar for: NACA 8-H-12 AIRFOIL

 1 1 Reynolds number fixed          Mach number fixed         

 xtrf =   1.000 (top)        1.000 (bottom)
 Mach =   0.000     Re =     0.100 e 6     Ncrit =   9.000

  alpha     CL        CD       CDp       Cm    Top Xtr Bot Xtr   Cpmin    Chinge    XCp    
 ------- -------- --------- --------- -------- ------- ------- -------- --------- ---------
   0.000   0.3172   0.02068   0.01292  -0.0394  0.6339  1.0000  -0.7555   0.0000   0.0000   0.0000   0.3745
   0.500   0.3621   0.02116   0.01315  -0.0375  0.6270  1.0000  -0.7882   0.0000   0.0000   0.0000   0.3529
   1.000   0.4126   0.02275   0.01473  -0.0390  0.6160  1.0000  -0.8158   0.0000   0.0000   0.0000   0.3434
   1.500   0.4570   0.02322   0.01500  -0.0366  0.6099  1.0000  -0.8516   0.0000   0.0000   0.0000   0.3283
   2.000   0.5045   0.02569   0.01758  -0.0390  0.5989  1.0000  -0.8749   0.0000   0.0000   0.0000   0.3249
   2.500   0.5490   0.02625   0.01802  -0.0366  0.5932  1.0000  -0.9134   0.0000   0.0000   0.0000   0.3136
   3.000   0.5875   0.02983   0.02178  -0.0390  0.5817  1.0000  -0.9306   0.0000   0.0000   0.0000   0.3129
   3.500   0.6322   0.03039   0.02228  -0.0364  0.5765  1.0000  -0.9784   0.0000   0.0000   0.0000   0.3034
   4.000   0.6532   0.03545   0.02753  -0.0382  0.5634  1.0000  -0.9909   0.0000   0.0000   0.0000   0.3039
   4.500   0.7012   0.03573   0.02782  -0.0352  0.5586  1.0000  -1.0538   0.0000   0.0000   0.0000   0.2951
   5.000   0.7085   0.04115   0.03338  -0.0353  0.5443  1.0000  -1.0697   0.0000   0.0000   0.0000   0.2941
   6.000   0.6981   0.05090   0.04322  -0.0301  0.5151  1.0000  -1.1489   0.0000   0.0000   0.0000   0.2860
   6.500   0.7932   0.04824   0.04079  -0.0288  0.5089  1.0000  -1.5154   0.0000   0.0000   0.0000   0.2786
   7.500   0.8160   0.05427   0.04702  -0.0226  0.4750  1.0000  -1.7873   0.0000   0.0000   0.0000   0.2686
   8.500   0.9358   0.04973   0.04304  -0.0158  0.4412  1.0000  -2.4398   0.0000   0.0000   0.0000   0.2563
   9.000   1.1368   0.02831   0.02185  -0.0092  0.4177  1.0000  -3.3740   0.0000   0.0000   0.0000   0.2466
   9.500   1.1785   0.02599   0.01977  -0.0054  0.3683  1.0000  -3.6818   0.0000   0.0000   0.0000   0.2421
  10.000   1.1625   0.02836   0.02171   0.0005  0.2537  1.0000  -3.7630   0.0000   0.0000   0.0000   0.2360
  10.500   1.1094   0.03566   0.02831   0.0051  0.1851  1.0000  -3.6992   0.0000   0.0000   0.0000   0.2307
  11.000   1.0668   0.04395   0.03603   0.0070  0.1382  1.0000  -3.6389   0.0000   0.0000   0.0000   0.2277
  11.500   1.0528   0.04955   0.04114   0.0095  0.1062  1.0000  -3.6740   0.0000   0.0000   0.0000   0.2243
  12.000   1.0701   0.05231   0.04374   0.0127  0.0860  1.0000  -3.8207   0.0000   0.0000   0.0000   0.2207
  12.500   1.1158   0.05325   0.04461   0.0172  0.0747  1.0000  -4.0634   0.0000   0.0000   0.0000   0.2165
  13.000   1.1758   0.05517   0.04645   0.0207  0.0669  1.0000  -4.4045   0.0000   0.0000   0.0000   0.2136
  13.500   1.1955   0.05984   0.05163   0.0222  0.0638  1.0000  -4.5834   0.0000   0.0000   0.0000   0.2119
  14.000   1.2055   0.06584   0.05812   0.0231  0.0622  1.0000  -4.7154   0.0000   0.0000   0.0000   0.2104
  14.500   1.1937   0.07357   0.06637   0.0229  0.0617  1.0000  -4.7419   0.0000   0.0000   0.0000   0.2095
  15.000   1.1608   0.08348   0.07682   0.0208  0.0621  1.0000  -4.6636   0.0000   0.0000   0.0000   0.2098


