xflr5 v6.61

 Calculated polar for: NACA 8-H-12 AIRFOIL

 1 1 Reynolds number fixed          Mach number fixed         

 xtrf =   1.000 (top)        1.000 (bottom)
 Mach =   0.000     Re =     0.080 e 6     Ncrit =   9.000

  alpha     CL        CD       CDp       Cm    Top Xtr Bot Xtr   Cpmin    Chinge    XCp    
 ------- -------- --------- --------- -------- ------- ------- -------- --------- ---------
   0.000   0.3370   0.02540   0.01707  -0.0500  0.6615  1.0000  -0.7382   0.0000   0.0000   0.0000   0.3988
   0.500   0.3825   0.02761   0.01919  -0.0520  0.6506  1.0000  -0.7585   0.0000   0.0000   0.0000   0.3856
   1.000   0.4234   0.02847   0.01984  -0.0492  0.6436  1.0000  -0.7893   0.0000   0.0000   0.0000   0.3653
   1.500   0.4591   0.03186   0.02325  -0.0517  0.6326  1.0000  -0.7989   0.0000   0.0000   0.0000   0.3610
   2.000   0.5005   0.03286   0.02412  -0.0488  0.6265  1.0000  -0.8334   0.0000   0.0000   0.0000   0.3453
   2.500   0.5115   0.03798   0.02930  -0.0502  0.6160  1.0000  -0.8215   0.0000   0.0000   0.0000   0.3455
   3.000   0.5554   0.03913   0.03038  -0.0476  0.6098  1.0000  -0.8646   0.0000   0.0000   0.0000   0.3324
   3.500   0.5288   0.04544   0.03669  -0.0454  0.6016  1.0000  -0.8291   0.0000   0.0000   0.0000   0.3319
   4.000   0.5533   0.04824   0.03947  -0.0430  0.5950  1.0000  -0.8552   0.0000   0.0000   0.0000   0.3233
   4.500   0.5433   0.05232   0.04351  -0.0382  0.5893  1.0000  -0.8488   0.0000   0.0000   0.0000   0.3152
   5.000   0.5311   0.05676   0.04793  -0.0346  0.5861  1.0000  -0.8379   0.0000   0.0000   0.0000   0.3093
   5.500   0.5327   0.06127   0.05247  -0.0328  0.5862  1.0000  -0.8427   0.0000   0.0000   0.0000   0.3051
   6.000   0.5604   0.06416   0.05542  -0.0311  0.5704  1.0000  -0.8906   0.0000   0.0000   0.0000   0.2985
   6.500   0.5870   0.06685   0.05818  -0.0293  0.5507  1.0000  -0.9456   0.0000   0.0000   0.0000   0.2922
   7.500   0.5911   0.07842   0.06998  -0.0291  0.5550  1.0000  -1.0356   0.0000   0.0000   0.0000   0.2904
   8.000   0.7222   0.07093   0.06274  -0.0232  0.4781  1.0000  -1.5455   0.0000   0.0000   0.0000   0.2725
   8.500   0.7362   0.07389   0.06584  -0.0209  0.4524  1.0000  -1.6784   0.0000   0.0000   0.0000   0.2681
   9.000   0.8025   0.07235   0.06462  -0.0178  0.4294  1.0000  -1.9993   0.0000   0.0000   0.0000   0.2611
   9.500   1.0704   0.04317   0.03652  -0.0075  0.4121  1.0000  -3.2071   0.0000   0.0000   0.0000   0.2448
  10.500   1.1115   0.03828   0.03187   0.0034  0.2855  1.0000  -3.6674   0.0000   0.0000   0.0000   0.2324
  11.000   1.0707   0.04492   0.03715   0.0072  0.1837  1.0000  -3.6225   0.0000   0.0000   0.0000   0.2276
  11.500   1.0453   0.05179   0.04330   0.0094  0.1374  1.0000  -3.6103   0.0000   0.0000   0.0000   0.2244
  12.000   1.0711   0.05374   0.04476   0.0141  0.1049  1.0000  -3.7701   0.0000   0.0000   0.0000   0.2194
  12.500   1.1237   0.05493   0.04593   0.0184  0.0878  1.0000  -4.0241   0.0000   0.0000   0.0000   0.2156
  13.000   1.1961   0.05778   0.04883   0.0217  0.0790  1.0000  -4.3699   0.0000   0.0000   0.0000   0.2133
  13.500   1.1996   0.06368   0.05533   0.0228  0.0758  1.0000  -4.4746   0.0000   0.0000   0.0000   0.2116
  14.000   1.1925   0.07073   0.06288   0.0231  0.0737  1.0000  -4.5302   0.0000   0.0000   0.0000   0.2103
  14.500   1.1647   0.07990   0.07260   0.0217  0.0736  1.0000  -4.4741   0.0000   0.0000   0.0000   0.2101
  15.000   1.1145   0.09207   0.08529   0.0176  0.0746  1.0000  -4.2931   0.0000   0.0000   0.0000   0.2121


