xflr5 v6.61

 Calculated polar for: NACA 8-H-12 AIRFOIL

 1 1 Reynolds number fixed          Mach number fixed         

 xtrf =   1.000 (top)        1.000 (bottom)
 Mach =   0.000     Re =     3.000 e 6     Ncrit =   9.000

  alpha     CL        CD       CDp       Cm    Top Xtr Bot Xtr   Cpmin    Chinge    XCp    
 ------- -------- --------- --------- -------- ------- ------- -------- --------- ---------
   0.000   0.1301   0.00650   0.00089   0.0093  0.4412  0.1173  -0.7408   0.0000   0.0000   0.0000   0.1772
   0.500   0.1841   0.00608   0.00084   0.0096  0.4354  0.2532  -0.7815   0.0000   0.0000   0.0000   0.1952
   1.000   0.2337   0.00534   0.00081   0.0107  0.4277  0.5251  -0.8196   0.0000   0.0000   0.0000   0.2011
   1.500   0.2735   0.00429   0.00078   0.0141  0.4246  0.8605  -0.8531   0.0000   0.0000   0.0000   0.1947
   2.000   0.3417   0.00418   0.00094   0.0117  0.4191  0.9704  -0.9025   0.0000   0.0000   0.0000   0.2115
   2.500   0.4166   0.00444   0.00115   0.0077  0.4116  0.9836  -0.9562   0.0000   0.0000   0.0000   0.2270
   3.000   0.5017   0.00461   0.00130   0.0014  0.4083  0.9871  -1.0182   0.0000   0.0000   0.0000   0.2424
   3.500   0.5732   0.00476   0.00141  -0.0021  0.4014  0.9902  -1.0728   0.0000   0.0000   0.0000   0.2483
   4.000   0.6370   0.00492   0.00155  -0.0038  0.3934  0.9931  -1.1241   0.0000   0.0000   0.0000   0.2503
   4.500   0.7004   0.00508   0.00164  -0.0056  0.3793  0.9943  -1.1769   0.0000   0.0000   0.0000   0.2518
   5.000   0.7654   0.00518   0.00171  -0.0078  0.3670  0.9952  -1.3261   0.0000   0.0000   0.0000   0.2535
   5.500   0.8289   0.00539   0.00184  -0.0098  0.3452  0.9963  -1.6021   0.0000   0.0000   0.0000   0.2545
   6.000   0.8908   0.00579   0.00207  -0.0117  0.3056  0.9974  -1.8971   0.0000   0.0000   0.0000   0.2552
   6.500   0.9486   0.00713   0.00287  -0.0136  0.1942  0.9987  -2.2107   0.0000   0.0000   0.0000   0.2559
   7.000   1.0069   0.00843   0.00372  -0.0156  0.1082  0.9997  -2.5392   0.0000   0.0000   0.0000   0.2564
   7.500   1.0592   0.00949   0.00452  -0.0162  0.0586  1.0000  -2.8646   0.0000   0.0000   0.0000   0.2556
   8.000   1.1067   0.01031   0.00521  -0.0156  0.0359  1.0000  -3.1877   0.0000   0.0000   0.0000   0.2537
   8.500   1.1524   0.01122   0.00600  -0.0148  0.0204  1.0000  -3.5133   0.0000   0.0000   0.0000   0.2517
   9.000   1.1979   0.01198   0.00675  -0.0138  0.0155  1.0000  -3.8431   0.0000   0.0000   0.0000   0.2497
   9.500   1.2429   0.01267   0.00746  -0.0128  0.0144  1.0000  -4.1843   0.0000   0.0000   0.0000   0.2477
  10.000   1.2859   0.01344   0.00825  -0.0116  0.0137  1.0000  -4.5428   0.0000   0.0000   0.0000   0.2456
  10.500   1.3254   0.01433   0.00917  -0.0101  0.0129  1.0000  -4.9200   0.0000   0.0000   0.0000   0.2433
  11.000   1.3599   0.01545   0.01035  -0.0080  0.0121  1.0000  -5.2787   0.0000   0.0000   0.0000   0.2408
  11.500   1.3805   0.01729   0.01230  -0.0053  0.0115  1.0000  -5.5714   0.0000   0.0000   0.0000   0.2378
  12.000   1.3858   0.01934   0.01442  -0.0006  0.0114  1.0000  -5.8172   0.0000   0.0000   0.0000   0.2335
  12.500   1.4040   0.02168   0.01685   0.0012  0.0113  1.0000  -6.1289   0.0000   0.0000   0.0000   0.2312
  13.000   1.4220   0.02441   0.01966   0.0023  0.0111  1.0000  -6.4600   0.0000   0.0000   0.0000   0.2295
  13.500   1.4385   0.02744   0.02277   0.0031  0.0109  1.0000  -6.7980   0.0000   0.0000   0.0000   0.2279
  14.000   1.4512   0.03092   0.02633   0.0038  0.0106  1.0000  -7.1322   0.0000   0.0000   0.0000   0.2264
  14.500   1.4615   0.03470   0.03021   0.0042  0.0104  1.0000  -7.4733   0.0000   0.0000   0.0000   0.2250
  15.000   1.4706   0.03869   0.03429   0.0045  0.0102  1.0000  -7.8194   0.0000   0.0000   0.0000   0.2237


