xflr5 v6.61

 Calculated polar for: NACA 8-H-12 AIRFOIL

 1 1 Reynolds number fixed          Mach number fixed         

 xtrf =   1.000 (top)        1.000 (bottom)
 Mach =   0.000     Re =     0.160 e 6     Ncrit =   9.000

  alpha     CL        CD       CDp       Cm    Top Xtr Bot Xtr   Cpmin    Chinge    XCp    
 ------- -------- --------- --------- -------- ------- ------- -------- --------- ---------
   0.000   0.2868   0.01393   0.00688  -0.0257  0.5929  1.0000  -0.7821   0.0000   0.0000   0.0000   0.3393
   0.500   0.3378   0.01426   0.00713  -0.0254  0.5828  1.0000  -0.8166   0.0000   0.0000   0.0000   0.3241
   1.000   0.3869   0.01452   0.00718  -0.0242  0.5763  1.0000  -0.8539   0.0000   0.0000   0.0000   0.3108
   1.500   0.4383   0.01505   0.00772  -0.0241  0.5672  1.0000  -0.8888   0.0000   0.0000   0.0000   0.3026
   2.000   0.4880   0.01538   0.00791  -0.0230  0.5606  1.0000  -0.9282   0.0000   0.0000   0.0000   0.2942
   2.500   0.5391   0.01612   0.00872  -0.0230  0.5531  1.0000  -0.9648   0.0000   0.0000   0.0000   0.2891
   3.000   0.5893   0.01663   0.00922  -0.0222  0.5461  1.0000  -1.0054   0.0000   0.0000   0.0000   0.2838
   3.500   0.6393   0.01735   0.00995  -0.0216  0.5401  1.0000  -1.0467   0.0000   0.0000   0.0000   0.2793
   4.000   0.6893   0.01825   0.01099  -0.0215  0.5321  1.0000  -1.0911   0.0000   0.0000   0.0000   0.2762
   4.500   0.7389   0.01878   0.01151  -0.0204  0.5268  1.0000  -1.1503   0.0000   0.0000   0.0000   0.2721
   5.000   0.7871   0.02011   0.01311  -0.0206  0.5180  1.0000  -1.2911   0.0000   0.0000   0.0000   0.2700
   5.500   0.8367   0.02048   0.01351  -0.0193  0.5112  1.0000  -1.5293   0.0000   0.0000   0.0000   0.2664
   6.000   0.8835   0.02151   0.01479  -0.0188  0.5006  1.0000  -1.7666   0.0000   0.0000   0.0000   0.2640
   6.500   0.9350   0.02131   0.01457  -0.0170  0.4931  1.0000  -2.0347   0.0000   0.0000   0.0000   0.2603
   7.000   0.9849   0.02083   0.01418  -0.0153  0.4776  1.0000  -2.3287   0.0000   0.0000   0.0000   0.2569
   7.500   1.0354   0.01989   0.01329  -0.0133  0.4581  1.0000  -2.6447   0.0000   0.0000   0.0000   0.2535
   8.000   1.0841   0.01904   0.01259  -0.0115  0.4331  1.0000  -2.9642   0.0000   0.0000   0.0000   0.2505
   8.500   1.1316   0.01843   0.01215  -0.0099  0.4042  1.0000  -3.2863   0.0000   0.0000   0.0000   0.2477
   9.000   1.1746   0.01835   0.01228  -0.0082  0.3578  1.0000  -3.5916   0.0000   0.0000   0.0000   0.2451
   9.500   1.1786   0.02136   0.01448  -0.0042  0.2055  1.0000  -3.7512   0.0000   0.0000   0.0000   0.2408
  10.000   1.1366   0.02711   0.01969   0.0022  0.1303  1.0000  -3.7384   0.0000   0.0000   0.0000   0.2344
  10.500   1.1024   0.03380   0.02605   0.0054  0.0938  1.0000  -3.7254   0.0000   0.0000   0.0000   0.2304
  11.000   1.0855   0.03980   0.03199   0.0072  0.0753  1.0000  -3.7636   0.0000   0.0000   0.0000   0.2277
  11.500   1.0779   0.04507   0.03721   0.0088  0.0657  1.0000  -3.8398   0.0000   0.0000   0.0000   0.2252
  12.000   1.0841   0.04908   0.04123   0.0105  0.0588  1.0000  -3.9724   0.0000   0.0000   0.0000   0.2228
  12.500   1.1020   0.05192   0.04409   0.0131  0.0535  1.0000  -4.1432   0.0000   0.0000   0.0000   0.2198
  13.000   1.1258   0.05451   0.04675   0.0152  0.0495  1.0000  -4.3729   0.0000   0.0000   0.0000   0.2173
  13.500   1.1782   0.05564   0.04783   0.0196  0.0460  1.0000  -4.7192   0.0000   0.0000   0.0000   0.2135
  14.000   1.1993   0.05959   0.05216   0.0210  0.0449  1.0000  -4.9461   0.0000   0.0000   0.0000   0.2118
  14.500   1.2080   0.06475   0.05774   0.0216  0.0435  1.0000  -5.1109   0.0000   0.0000   0.0000   0.2105
  15.000   1.2066   0.07105   0.06446   0.0215  0.0424  1.0000  -5.2432   0.0000   0.0000   0.0000   0.2096


